@<TRIPOS>MOLECULE
MOL
  110   111     1     0     0
SMALL
No Charge or Current Charge


@<TRIPOS>ATOM
      1 C1           0.2390    -1.0920    -1.2980 c          1 MOL       0.681485
      2 C2          -1.1330    -0.5010    -1.6760 ce         1 MOL      -0.505039
      3 C3           1.1980    -0.2460    -0.7090 c4         1 MOL      -0.931666
      4 C4          -1.0530     0.5020    -2.5280 c1         1 MOL       0.521976
      5 C5           1.0040     1.1870    -0.3450 ca         1 MOL       0.116511
      6 C6           0.3610     1.5850     0.8570 ca         1 MOL       0.363465
      7 C7           1.4750     2.2240    -1.1580 ca         1 MOL       0.081346
      8 C8           1.3380     3.5690    -0.8420 ca         1 MOL      -0.574721
      9 C9           0.6750     3.9600     0.3430 ca         1 MOL       0.459194
     10 C10          0.1930     2.9300     1.1840 ca         1 MOL      -0.651245
     11 C11         -2.3900    -1.0960    -1.1790 ca         1 MOL       0.182198
     12 C12         -3.6520    -0.5280    -1.4340 ca         1 MOL       0.215484
     13 C13         -2.3890    -2.2440    -0.3710 ca         1 MOL      -0.212186
     14 C14         -4.8230    -1.0540    -0.9010 ca         1 MOL      -0.485990
     15 C15         -4.8150    -2.1880    -0.0610 ca         1 MOL       0.414090
     16 C16         -3.5510    -2.7760     0.1710 ca         1 MOL      -0.387219
     17 O1           0.4250    -2.3120    -1.5340 o          1 MOL      -0.608252
     18 O2          -0.8610     1.3540    -3.3060 o          1 MOL      -0.358596
     19 H1          -0.3310     3.1590     2.0950 ha         1 MOL       0.350349
     20 H2           1.7450     4.3040    -1.5240 ha         1 MOL       0.227755
     21 H3           1.9720     1.9600    -2.0870 ha         1 MOL       0.083699
     22 H4          -1.4510    -2.7490    -0.1810 ha         1 MOL       0.170350
     23 H5          -3.4640    -3.6720     0.7730 ha         1 MOL       0.208158
     24 H6          -5.7450    -0.5450    -1.1400 ha         1 MOL       0.225348
     25 N1           0.4960     5.2900     0.6730 nh         1 MOL      -0.305015
     26 N2          -0.1120     0.5510     1.6920 n          1 MOL      -0.606984
     27 N3          -5.9800    -2.6950     0.4880 nh         1 MOL      -0.349554
     28 N4          -3.7460     0.6360    -2.2650 n          1 MOL      -0.566619
     29 C17         -4.0530     1.8890    -1.7960 c          1 MOL       0.774701
     30 C18         -4.1130     2.9730    -2.8550 c3         1 MOL      -0.742934
     31 H7          -4.1380     2.5900    -3.8760 hc         1 MOL       0.176134
     32 H8          -3.2320     3.6120    -2.7460 hc         1 MOL       0.216337
     33 H9          -4.9930     3.5920    -2.6780 hc         1 MOL       0.189352
     34 O3          -4.2310     2.1300    -0.6110 o          1 MOL      -0.530590
     35 C19          0.9110     6.3630    -0.2270 c3         1 MOL       0.106814
     36 C20         -0.1480     5.6960     1.9220 c3         1 MOL       0.212012
     37 C21          2.3760     6.7820    -0.0590 c3         1 MOL      -0.380103
     38 H10          3.0520     5.9460    -0.2540 hc         1 MOL       0.099283
     39 H11          2.5660     7.1390     0.9570 hc         1 MOL       0.096709
     40 H12          2.6250     7.5900    -0.7530 hc         1 MOL       0.099554
     41 H13          0.2620     7.2220    -0.0360 h1         1 MOL       0.063500
     42 H14          0.7160     6.0700    -1.2620 h1         1 MOL       0.031530
     43 C22         -1.6770     5.7560     1.8420 c3         1 MOL      -0.393562
     44 H15         -2.0000     6.4840     1.0910 hc         1 MOL       0.086777
     45 H16         -2.0980     6.0590     2.8060 hc         1 MOL       0.096937
     46 H17         -2.1060     4.7870     1.5760 hc         1 MOL       0.125718
     47 H18          0.2440     6.6820     2.1840 h1         1 MOL       0.040281
     48 H19          0.1650     5.0300     2.7290 h1         1 MOL      -0.016268
     49 C23         -7.2850    -2.1070     0.1890 c3         1 MOL       0.154727
     50 C24         -5.9560    -3.7710     1.4760 c3         1 MOL       0.191010
     51 C25         -6.0050    -5.1750     0.8640 c3         1 MOL      -0.351216
     52 H20         -5.1540    -5.3510     0.2020 hc         1 MOL       0.088554
     53 H21         -6.9190    -5.3140     0.2800 hc         1 MOL       0.089041
     54 H22         -5.9870    -5.9380     1.6490 hc         1 MOL       0.085768
     55 H23         -6.8150    -3.6300     2.1370 h1         1 MOL       0.041919
     56 H24         -5.0740    -3.6640     2.1130 h1         1 MOL      -0.003513
     57 C26         -7.6330    -0.8790     1.0390 c3         1 MOL      -0.295579
     58 H25         -7.6400    -1.1290     2.1040 hc         1 MOL       0.074440
     59 H26         -8.6280    -0.5050     0.7770 hc         1 MOL       0.068137
     60 H27         -6.9180    -0.0680     0.8880 hc         1 MOL       0.099176
     61 H28         -8.0350    -2.8860     0.3490 h1         1 MOL       0.046303
     62 H29         -7.3390    -1.8610    -0.8740 h1         1 MOL       0.004980
     63 C27         -0.7290     0.6090     2.9120 c          1 MOL       0.786909
     64 H30          0.0310    -0.3680     1.2950 hn         1 MOL       0.380093
     65 C28         -1.1030    -0.7420     3.4960 c3         1 MOL      -0.591517
     66 H31         -0.5840    -0.8680     4.4490 hc         1 MOL       0.152093
     67 H32         -0.8690    -1.5880     2.8490 hc         1 MOL       0.123167
     68 H33         -2.1750    -0.7440     3.7040 hc         1 MOL       0.177809
     69 O4          -0.9740     1.6450     3.5200 o          1 MOL      -0.588527
     70 P1           2.7660    -1.0670    -0.4390 p5         1 MOL       1.089997
     71 C29          3.8990     0.1630     0.3300 c3         1 MOL      -0.488060
     72 C30          5.4130    -0.0440     0.1910 c3         1 MOL       0.327351
     73 H34          3.6120     0.2140     1.3860 hc         1 MOL       0.110670
     74 H35          3.6210     1.1260    -0.1030 hc         1 MOL       0.061357
     75 C31          6.1960     1.0910     0.8680 c3         1 MOL       0.104901
     76 H36          5.6870    -0.0820    -0.8680 hc         1 MOL      -0.053933
     77 H37          5.7200    -0.9970     0.6270 hc         1 MOL      -0.085481
     78 C32          7.7110     0.9210     0.7360 c3         1 MOL      -0.378513
     79 H38          8.0200     0.9140    -0.3150 hc         1 MOL       0.079051
     80 H39          8.0450    -0.0200     1.1840 hc         1 MOL       0.085369
     81 H40          8.2480     1.7340     1.2320 hc         1 MOL       0.104509
     82 H41          5.9210     1.1350     1.9280 hc         1 MOL      -0.004742
     83 H42          5.8900     2.0490     0.4330 hc         1 MOL       0.008499
     84 C33          2.5830    -2.4830     0.7350 c3         1 MOL      -0.591802
     85 C34          3.8380    -3.0830     1.3830 c3         1 MOL       0.171195
     86 H43          2.0140    -3.2410     0.1950 hc         1 MOL       0.179291
     87 H44          1.9160    -2.0960     1.5120 hc         1 MOL       0.116655
     88 C35          3.4830    -4.2370     2.3300 c3         1 MOL       0.057455
     89 H45          4.3780    -2.3160     1.9460 hc         1 MOL       0.016698
     90 H46          4.5280    -3.4520     0.6190 hc         1 MOL       0.041485
     91 C36          4.7160    -4.8670     2.9830 c3         1 MOL      -0.351289
     92 H47          5.3930    -5.2850     2.2320 hc         1 MOL       0.076678
     93 H48          4.4350    -5.6760     3.6630 hc         1 MOL       0.100672
     94 H49          5.2790    -4.1280     3.5630 hc         1 MOL       0.075629
     95 H50          2.9270    -5.0020     1.7750 hc         1 MOL       0.017983
     96 H51          2.8020    -3.8700     3.1080 hc         1 MOL       0.018467
     97 C37          3.4080    -1.6340    -2.0870 c3         1 MOL      -0.401698
     98 C38          4.1230    -2.9900    -2.2490 c3         1 MOL       0.011715
     99 H52          4.0250    -0.8170    -2.4770 hc         1 MOL       0.097973
    100 H53          2.4980    -1.6520    -2.6870 hc         1 MOL       0.150739
    101 C39          5.6390    -2.9880    -2.0330 c3         1 MOL       0.253692
    102 H54          3.9290    -3.3210    -3.2750 hc         1 MOL       0.042204
    103 H55          3.6520    -3.7450    -1.6120 hc         1 MOL       0.006544
    104 C40          6.2690    -4.3540    -2.3150 c3         1 MOL      -0.457765
    105 H56          5.8660    -5.1230    -1.6480 hc         1 MOL       0.106740
    106 H57          7.3530    -4.3290    -2.1730 hc         1 MOL       0.114679
    107 H58          6.0770    -4.6760    -3.3440 hc         1 MOL       0.100526
    108 H59          5.8840    -2.6830    -1.0110 hc         1 MOL      -0.080155
    109 H60          6.0910    -2.2340    -2.6900 hc         1 MOL      -0.016753
    110 H61         -3.6910     0.5060    -3.2650 hn         1 MOL       0.337189
@<TRIPOS>BOND
     1     1     2 1   
     2     1     3 1   
     3     1    17 2   
     4     2     4 2   
     5     2    11 1   
     6     3     5 1   
     7     3    70 2   
     8     4    18 2   
     9     5     6 ar  
    10     5     7 ar  
    11     6    10 ar  
    12     6    26 1   
    13     7     8 ar  
    14     7    21 1   
    15     8     9 ar  
    16     8    20 1   
    17     9    10 ar  
    18     9    25 1   
    19    10    19 1   
    20    11    12 ar  
    21    11    13 ar  
    22    12    14 ar  
    23    12    28 1   
    24    13    16 ar  
    25    13    22 1   
    26    14    15 ar  
    27    14    24 1   
    28    15    16 ar  
    29    15    27 1   
    30    16    23 1   
    31    25    35 1   
    32    25    36 1   
    33    26    63 1   
    34    26    64 1   
    35    27    49 1   
    36    27    50 1   
    37    28    29 1   
    38    28   110 1   
    39    29    30 1   
    40    29    34 2   
    41    30    31 1   
    42    30    32 1   
    43    30    33 1   
    44    35    37 1   
    45    35    41 1   
    46    35    42 1   
    47    36    43 1   
    48    36    47 1   
    49    36    48 1   
    50    37    38 1   
    51    37    39 1   
    52    37    40 1   
    53    43    44 1   
    54    43    45 1   
    55    43    46 1   
    56    49    57 1   
    57    49    61 1   
    58    49    62 1   
    59    50    51 1   
    60    50    55 1   
    61    50    56 1   
    62    51    52 1   
    63    51    53 1   
    64    51    54 1   
    65    57    58 1   
    66    57    59 1   
    67    57    60 1   
    68    63    65 1   
    69    63    69 2   
    70    65    66 1   
    71    65    67 1   
    72    65    68 1   
    73    70    71 1   
    74    70    84 1   
    75    70    97 1   
    76    71    72 1   
    77    71    73 1   
    78    71    74 1   
    79    72    75 1   
    80    72    76 1   
    81    72    77 1   
    82    75    78 1   
    83    75    82 1   
    84    75    83 1   
    85    78    79 1   
    86    78    80 1   
    87    78    81 1   
    88    84    85 1   
    89    84    86 1   
    90    84    87 1   
    91    85    88 1   
    92    85    89 1   
    93    85    90 1   
    94    88    91 1   
    95    88    95 1   
    96    88    96 1   
    97    91    92 1   
    98    91    93 1   
    99    91    94 1   
   100    97    98 1   
   101    97    99 1   
   102    97   100 1   
   103    98   101 1   
   104    98   102 1   
   105    98   103 1   
   106   101   104 1   
   107   101   108 1   
   108   101   109 1   
   109   104   105 1   
   110   104   106 1   
   111   104   107 1   
@<TRIPOS>SUBSTRUCTURE
     1 MOL         1 TEMP              0 ****  ****    0 ROOT
